12
Randomly generated samples
C	 129.573645	 128.380298	 130.419253
C	 129.152300	 128.063991	 129.153159
C	 128.701549	 129.061965	 128.191667
C	 129.137392	 130.359282	 128.372678
C	 129.778609	 130.673071	 129.531397
C	 129.888416	 129.724678	 130.553053
H	 129.628474	 127.787925	 131.297299
H	 128.770658	 127.043772	 128.878887
H	 128.387905	 128.675295	 127.184334
H	 129.112699	 130.982919	 127.599165
H	 130.081044	 131.668771	 129.709559
H	 130.467139	 130.108652	 131.382067
