12
Randomly generated samples
C	 129.571025	 128.383021	 130.422992
C	 129.150233	 128.055235	 129.149964
C	 128.711391	 129.056879	 128.204842
C	 129.137740	 130.345806	 128.379027
C	 129.777935	 130.665018	 129.524544
C	 129.901620	 129.714137	 130.553077
H	 129.633726	 127.778094	 131.303420
H	 128.762943	 127.052496	 128.883111
H	 128.384048	 128.686308	 127.181525
H	 129.111714	 130.989873	 127.602233
H	 130.087086	 131.663493	 129.713920
H	 130.470030	 130.122008	 131.379371
