12
Randomly generated samples
C	 129.568777	 128.374538	 130.423106
C	 129.153355	 128.047782	 129.146638
C	 128.705913	 129.058658	 128.200994
C	 129.139024	 130.354205	 128.377414
C	 129.773541	 130.672768	 129.534077
C	 129.895354	 129.719322	 130.547417
H	 129.646942	 127.783726	 131.301604
H	 128.770227	 127.049283	 128.881203
H	 128.380590	 128.680272	 127.185637
H	 129.114635	 130.980509	 127.596418
H	 130.079171	 131.675673	 129.702809
H	 130.461229	 130.119156	 131.368751
