12
Randomly generated samples
C	 129.577311	 128.383091	 130.415956
C	 129.159002	 128.061223	 129.148260
C	 128.705991	 129.059139	 128.203395
C	 129.156975	 130.355715	 128.376656
C	 129.767477	 130.675942	 129.536041
C	 129.903619	 129.719642	 130.551418
H	 129.638548	 127.774847	 131.289441
H	 128.763495	 127.059282	 128.879451
H	 128.381771	 128.673594	 127.179687
H	 129.111483	 130.984497	 127.607472
H	 130.080777	 131.668891	 129.718494
H	 130.465432	 130.108764	 131.386050
