12
Randomly generated samples
C	 129.572267	 128.380067	 130.421857
C	 129.152379	 128.047994	 129.148918
C	 128.699014	 129.063504	 128.200363
C	 129.140515	 130.350400	 128.374350
C	 129.778055	 130.674860	 129.528226
C	 129.909154	 129.719097	 130.545297
H	 129.642159	 127.790769	 131.301610
H	 128.770555	 127.057231	 128.891095
H	 128.385788	 128.683944	 127.184289
H	 129.113771	 130.982015	 127.599146
H	 130.082060	 131.667854	 129.715931
H	 130.458811	 130.113510	 131.384523
