12
Randomly generated samples
C	 129.568153	 128.376284	 130.411150
C	 129.159444	 128.049391	 129.144459
C	 128.708710	 129.066705	 128.202307
C	 129.148694	 130.350683	 128.377561
C	 129.778623	 130.675271	 129.540592
C	 129.902738	 129.726200	 130.551911
H	 129.635585	 127.778403	 131.296617
H	 128.767289	 127.060921	 128.885649
H	 128.391983	 128.670096	 127.183075
H	 129.113901	 130.980579	 127.613310
H	 130.074907	 131.676241	 129.712856
H	 130.456727	 130.113708	 131.376342
