12
Randomly generated samples
C	 129.572013	 128.387108	 130.428776
C	 129.157046	 128.054335	 129.151413
C	 128.704590	 129.052744	 128.207492
C	 129.140851	 130.346841	 128.379137
C	 129.769964	 130.675296	 129.520252
C	 129.884696	 129.726604	 130.551407
H	 129.632955	 127.781165	 131.298902
H	 128.769034	 127.054690	 128.872912
H	 128.396815	 128.675717	 127.177116
H	 129.115071	 130.984273	 127.594290
H	 130.092224	 131.671986	 129.718207
H	 130.464671	 130.111193	 131.381069
