12
Randomly generated samples
C	 129.567593	 128.384451	 130.426213
C	 129.147124	 128.054914	 129.147084
C	 128.699595	 129.066113	 128.200179
C	 129.147438	 130.348891	 128.371017
C	 129.774660	 130.677956	 129.524028
C	 129.898726	 129.719237	 130.551404
H	 129.642947	 127.779356	 131.308146
H	 128.764716	 127.051997	 128.880630
H	 128.381309	 128.677117	 127.181355
H	 129.113499	 130.988713	 127.604103
H	 130.088675	 131.669061	 129.717604
H	 130.459406	 130.114878	 131.389503
