12
Randomly generated samples
C	 129.572104	 128.381025	 130.421913
C	 129.151302	 128.052941	 129.145634
C	 128.709903	 129.063522	 128.198505
C	 129.148409	 130.357459	 128.378751
C	 129.773424	 130.670415	 129.530176
C	 129.900370	 129.721399	 130.554602
H	 129.628094	 127.777903	 131.299449
H	 128.770265	 127.048401	 128.875218
H	 128.381187	 128.680113	 127.182715
H	 129.116955	 130.990718	 127.599783
H	 130.083218	 131.665194	 129.713785
H	 130.458719	 130.111997	 131.386199
