12
Randomly generated samples
C	 129.572576	 128.373844	 130.414605
C	 129.141751	 128.053793	 129.147557
C	 128.702914	 129.062829	 128.190807
C	 129.148917	 130.351088	 128.377260
C	 129.775660	 130.663098	 129.531524
C	 129.900995	 129.715323	 130.556565
H	 129.633478	 127.776591	 131.289480
H	 128.767850	 127.049575	 128.879888
H	 128.393381	 128.685359	 127.185462
H	 129.114580	 130.980501	 127.602926
H	 130.086998	 131.666546	 129.705652
H	 130.457029	 130.114174	 131.384288
