12
Randomly generated samples
C	 129.581334	 128.377326	 130.421643
C	 129.155002	 128.059329	 129.152384
C	 128.707620	 129.060121	 128.197551
C	 129.137762	 130.364664	 128.371553
C	 129.774692	 130.677223	 129.527348
C	 129.900005	 129.719113	 130.554813
H	 129.629208	 127.786845	 131.296159
H	 128.758991	 127.047562	 128.885721
H	 128.386727	 128.676579	 127.176784
H	 129.116441	 130.980202	 127.599896
H	 130.083645	 131.669752	 129.713320
H	 130.467399	 130.102546	 131.382947
