12
Randomly generated samples
C	 129.582876	 128.377062	 130.416469
C	 129.150510	 128.053007	 129.147093
C	 128.702183	 129.061968	 128.206674
C	 129.147422	 130.348375	 128.374475
C	 129.772090	 130.668921	 129.534282
C	 129.895445	 129.719313	 130.554015
H	 129.637989	 127.782832	 131.312327
H	 128.775108	 127.055850	 128.883238
H	 128.381090	 128.666276	 127.188043
H	 129.111826	 130.987414	 127.604448
H	 130.092244	 131.665774	 129.713075
H	 130.463150	 130.106302	 131.383568
