12
Randomly generated samples
C	 129.574840	 128.380066	 130.425832
C	 129.161015	 128.055022	 129.144573
C	 128.700359	 129.063708	 128.202739
C	 129.141713	 130.356112	 128.376474
C	 129.773436	 130.674583	 129.533021
C	 129.905085	 129.724708	 130.547343
H	 129.647505	 127.784547	 131.300842
H	 128.764442	 127.053104	 128.887444
H	 128.387691	 128.676427	 127.173224
H	 129.112576	 130.988642	 127.601540
H	 130.088576	 131.668638	 129.712564
H	 130.465673	 130.109920	 131.377205
