12
Randomly generated samples
C	 129.572140	 128.381848	 130.416706
C	 129.149005	 128.057338	 129.148575
C	 128.703748	 129.055785	 128.202762
C	 129.146002	 130.349741	 128.378736
C	 129.770451	 130.670055	 129.536459
C	 129.897414	 129.718848	 130.553316
H	 129.635326	 127.777501	 131.298991
H	 128.762156	 127.052059	 128.877168
H	 128.380781	 128.679143	 127.176134
H	 129.109803	 130.982864	 127.611486
H	 130.087410	 131.669874	 129.716774
H	 130.458039	 130.106494	 131.381294
