12
Randomly generated samples
C	 129.572298	 128.379079	 130.418699
C	 129.143474	 128.045921	 129.156842
C	 128.702812	 129.058244	 128.201882
C	 129.149258	 130.349883	 128.374927
C	 129.768917	 130.677586	 129.531946
C	 129.888063	 129.729661	 130.546237
H	 129.637851	 127.778613	 131.289910
H	 128.771405	 127.055361	 128.881312
H	 128.379452	 128.678835	 127.177730
H	 129.106232	 130.992082	 127.604730
H	 130.081107	 131.667824	 129.721491
H	 130.460391	 130.112582	 131.381114
