12
Randomly generated samples
C	 129.572263	 128.379424	 130.420909
C	 129.144686	 128.061517	 129.155291
C	 128.701937	 129.053542	 128.187648
C	 129.139301	 130.346832	 128.377488
C	 129.773769	 130.667342	 129.535195
C	 129.895158	 129.718470	 130.546477
H	 129.636436	 127.782722	 131.304608
H	 128.772529	 127.047395	 128.881016
H	 128.390166	 128.672970	 127.185672
H	 129.105049	 130.986354	 127.604069
H	 130.086599	 131.667120	 129.714334
H	 130.459765	 130.116056	 131.384696
