12
Randomly generated samples
C	 129.566552	 128.381865	 130.421591
C	 129.153596	 128.053499	 129.151450
C	 128.700538	 129.058009	 128.204110
C	 129.143169	 130.348200	 128.372983
C	 129.781384	 130.680728	 129.526267
C	 129.898761	 129.723773	 130.545805
H	 129.641595	 127.779894	 131.296745
H	 128.767385	 127.058837	 128.877352
H	 128.381744	 128.671859	 127.186453
H	 129.107559	 130.984379	 127.603519
H	 130.090101	 131.661778	 129.712974
H	 130.460695	 130.105503	 131.382791
