12
Randomly generated samples
C	 129.564090	 128.382722	 130.411129
C	 129.163065	 128.054541	 129.151052
C	 128.708558	 129.055423	 128.204923
C	 129.154516	 130.346234	 128.375808
C	 129.770486	 130.677943	 129.541269
C	 129.891957	 129.725825	 130.543376
H	 129.640614	 127.788336	 131.302525
H	 128.775787	 127.051231	 128.879632
H	 128.384131	 128.682621	 127.177844
H	 129.119597	 130.987837	 127.599489
H	 130.084802	 131.666641	 129.709618
H	 130.456051	 130.111924	 131.393407
