12
Randomly generated samples
C	 129.567731	 128.382169	 130.413938
C	 129.161226	 128.057554	 129.150330
C	 128.709970	 129.056825	 128.202805
C	 129.143394	 130.347830	 128.377074
C	 129.775184	 130.670181	 129.529986
C	 129.903426	 129.719489	 130.555429
H	 129.647737	 127.792527	 131.290731
H	 128.773687	 127.052563	 128.883435
H	 128.385171	 128.670824	 127.181719
H	 129.119136	 130.981688	 127.607437
H	 130.082206	 131.674044	 129.706198
H	 130.457208	 130.111393	 131.385804
