12
Randomly generated samples
C	 129.574128	 128.379136	 130.418268
C	 129.152173	 128.056424	 129.148011
C	 128.695555	 129.062675	 128.197129
C	 129.153724	 130.348356	 128.371520
C	 129.770776	 130.672739	 129.536314
C	 129.893804	 129.720608	 130.551264
H	 129.638216	 127.777811	 131.299475
H	 128.779427	 127.049892	 128.876513
H	 128.375922	 128.672663	 127.181664
H	 129.108992	 130.986829	 127.605518
H	 130.084394	 131.671198	 129.711050
H	 130.457706	 130.109371	 131.373247
