12
Randomly generated samples
C	 129.571264	 128.388454	 130.410425
C	 129.155364	 128.060370	 129.152210
C	 128.707692	 129.062692	 128.196490
C	 129.132954	 130.356053	 128.381305
C	 129.771981	 130.668635	 129.540130
C	 129.900002	 129.721977	 130.555676
H	 129.635130	 127.795696	 131.296143
H	 128.770603	 127.041484	 128.883986
H	 128.387035	 128.669124	 127.185388
H	 129.115156	 130.992574	 127.595588
H	 130.086345	 131.667928	 129.714592
H	 130.454476	 130.114592	 131.384961
