12
Randomly generated samples
C	 129.570228	 128.387884	 130.430247
C	 129.155475	 128.059049	 129.152036
C	 128.698807	 129.056265	 128.195003
C	 129.144733	 130.349461	 128.371562
C	 129.772265	 130.674670	 129.522880
C	 129.898283	 129.730994	 130.548087
H	 129.640523	 127.779382	 131.293051
H	 128.763062	 127.060983	 128.882691
H	 128.396139	 128.665431	 127.179771
H	 129.121886	 130.983232	 127.606448
H	 130.086250	 131.665411	 129.711921
H	 130.460150	 130.112579	 131.371424
