12
Randomly generated samples
C	 129.575545	 128.383760	 130.421790
C	 129.147315	 128.053068	 129.151815
C	 128.710850	 129.058682	 128.202888
C	 129.147723	 130.342184	 128.375535
C	 129.768399	 130.672937	 129.531182
C	 129.894399	 129.720222	 130.552946
H	 129.646435	 127.785158	 131.292618
H	 128.765334	 127.053469	 128.878821
H	 128.375175	 128.675284	 127.177500
H	 129.111706	 130.988151	 127.605894
H	 130.093256	 131.667862	 129.717018
H	 130.453625	 130.109210	 131.384778
