12
Randomly generated samples
C	 129.569104	 128.377302	 130.411512
C	 129.151938	 128.053381	 129.144405
C	 128.705042	 129.059243	 128.202488
C	 129.147734	 130.347345	 128.379964
C	 129.769700	 130.673998	 129.533089
C	 129.895575	 129.712801	 130.550916
H	 129.637187	 127.786731	 131.298572
H	 128.765848	 127.055218	 128.888757
H	 128.392172	 128.682792	 127.178110
H	 129.111561	 130.984901	 127.605931
H	 130.091456	 131.669414	 129.714637
H	 130.454288	 130.113597	 131.384352
