12
Randomly generated samples
C	 129.572214	 128.384410	 130.414714
C	 129.156909	 128.060656	 129.148907
C	 128.709334	 129.056617	 128.196008
C	 129.146763	 130.351589	 128.377287
C	 129.777092	 130.667585	 129.530953
C	 129.892827	 129.719460	 130.549947
H	 129.638952	 127.782595	 131.302375
H	 128.766889	 127.049875	 128.887976
H	 128.378244	 128.680304	 127.184540
H	 129.114466	 130.992099	 127.599607
H	 130.083380	 131.666607	 129.710591
H	 130.456186	 130.108278	 131.388943
