12
Randomly generated samples
C	 129.580090	 128.381597	 130.415259
C	 129.159010	 128.057652	 129.154837
C	 128.694522	 129.059178	 128.205199
C	 129.142492	 130.342775	 128.376187
C	 129.777429	 130.667840	 129.531903
C	 129.908179	 129.722091	 130.556611
H	 129.635483	 127.780578	 131.293163
H	 128.763297	 127.059795	 128.885606
H	 128.387572	 128.673405	 127.182822
H	 129.118801	 130.981987	 127.599389
H	 130.075509	 131.662907	 129.712127
H	 130.463405	 130.111014	 131.383526
