12
Randomly generated samples
C	 129.569619	 128.374858	 130.420467
C	 129.154548	 128.054356	 129.155915
C	 128.704190	 129.055291	 128.193686
C	 129.139453	 130.356223	 128.370416
C	 129.775639	 130.672306	 129.530998
C	 129.901516	 129.717379	 130.552495
H	 129.639096	 127.772709	 131.293953
H	 128.764278	 127.064346	 128.884528
H	 128.388874	 128.678870	 127.189347
H	 129.115980	 130.984680	 127.604758
H	 130.083394	 131.664828	 129.715547
H	 130.469133	 130.103642	 131.390586
