12
Randomly generated samples
C	 129.572914	 128.378493	 130.421465
C	 129.156199	 128.054231	 129.149335
C	 128.710207	 129.059751	 128.194162
C	 129.146061	 130.351578	 128.370840
C	 129.779063	 130.673312	 129.528351
C	 129.886078	 129.727369	 130.552686
H	 129.640638	 127.777049	 131.298817
H	 128.767815	 127.052506	 128.880615
H	 128.380952	 128.678028	 127.187458
H	 129.122476	 130.989497	 127.601071
H	 130.086173	 131.670615	 129.712826
H	 130.464973	 130.100244	 131.386363
