12
Randomly generated samples
C	 129.565636	 128.384669	 130.409389
C	 129.155163	 128.051656	 129.149429
C	 128.704095	 129.057363	 128.212912
C	 129.150669	 130.348495	 128.362692
C	 129.767160	 130.679098	 129.528679
C	 129.901018	 129.724427	 130.543800
H	 129.651044	 127.770226	 131.302232
H	 128.771334	 127.046751	 128.876574
H	 128.382415	 128.671274	 127.182523
H	 129.107346	 130.995761	 127.607976
H	 130.083432	 131.665576	 129.713213
H	 130.460995	 130.111446	 131.378285
