12
Randomly generated samples
C	 129.571984	 128.385480	 130.423148
C	 129.159529	 128.055954	 129.151367
C	 128.704934	 129.059184	 128.209818
C	 129.147363	 130.355370	 128.379072
C	 129.772471	 130.673485	 129.534479
C	 129.898089	 129.716323	 130.553552
H	 129.649885	 127.777902	 131.295687
H	 128.760495	 127.051589	 128.884388
H	 128.379149	 128.681557	 127.185106
H	 129.118456	 130.988786	 127.596439
H	 130.084280	 131.666294	 129.710696
H	 130.459652	 130.111241	 131.381823
