12
Randomly generated samples
C	 129.574921	 128.380616	 130.415333
C	 129.154261	 128.053454	 129.148401
C	 128.709340	 129.056015	 128.199046
C	 129.139676	 130.355776	 128.381999
C	 129.778073	 130.678892	 129.526632
C	 129.888442	 129.724923	 130.551471
H	 129.638993	 127.780531	 131.297819
H	 128.767929	 127.057300	 128.878739
H	 128.379158	 128.670808	 127.186380
H	 129.122017	 130.984586	 127.613509
H	 130.077196	 131.677688	 129.707124
H	 130.448818	 130.111140	 131.385550
