12
Randomly generated samples
C	 129.563112	 128.375984	 130.421132
C	 129.145983	 128.053514	 129.153476
C	 128.711402	 129.063351	 128.200757
C	 129.144708	 130.350365	 128.377752
C	 129.774259	 130.669860	 129.540246
C	 129.899443	 129.718724	 130.551532
H	 129.650370	 127.781491	 131.298687
H	 128.769072	 127.057215	 128.876485
H	 128.388843	 128.670395	 127.179731
H	 129.105572	 130.981495	 127.607432
H	 130.080142	 131.679846	 129.716749
H	 130.464378	 130.117129	 131.384883
