12
Randomly generated samples
C	 129.572904	 128.382236	 130.422392
C	 129.154782	 128.059867	 129.151782
C	 128.693421	 129.059293	 128.195246
C	 129.144713	 130.354712	 128.369319
C	 129.770844	 130.675668	 129.532534
C	 129.903769	 129.717953	 130.551268
H	 129.644204	 127.785690	 131.298762
H	 128.776922	 127.058574	 128.887032
H	 128.381431	 128.674639	 127.187615
H	 129.121487	 130.990542	 127.615354
H	 130.087823	 131.669717	 129.712839
H	 130.460929	 130.115008	 131.376196
