12
Randomly generated samples
C	 129.568533	 128.380791	 130.418822
C	 129.161079	 128.059299	 129.143310
C	 128.705899	 129.059290	 128.200255
C	 129.150018	 130.357148	 128.383562
C	 129.781046	 130.672963	 129.530076
C	 129.900130	 129.716171	 130.545490
H	 129.633209	 127.777096	 131.293464
H	 128.769371	 127.055522	 128.882563
H	 128.390686	 128.681825	 127.184544
H	 129.113887	 130.991886	 127.605284
H	 130.082037	 131.674124	 129.712679
H	 130.465538	 130.111026	 131.380462
