12
Randomly generated samples
C	 129.566930	 128.374540	 130.418279
C	 129.143753	 128.043616	 129.155571
C	 128.699891	 129.055201	 128.201747
C	 129.155392	 130.343637	 128.372070
C	 129.774812	 130.679174	 129.533143
C	 129.893137	 129.727755	 130.543402
H	 129.642228	 127.776022	 131.296628
H	 128.766209	 127.057748	 128.890627
H	 128.386854	 128.674380	 127.179491
H	 129.115145	 130.993170	 127.604949
H	 130.083283	 131.668177	 129.717707
H	 130.470503	 130.112714	 131.377367
