12
Randomly generated samples
C	 129.568024	 128.381470	 130.416293
C	 129.160106	 128.056388	 129.143911
C	 128.705128	 129.061183	 128.202884
C	 129.142591	 130.344840	 128.375468
C	 129.770506	 130.675549	 129.528740
C	 129.909118	 129.715264	 130.547398
H	 129.645526	 127.776442	 131.297918
H	 128.770766	 127.055619	 128.892626
H	 128.394745	 128.681292	 127.179702
H	 129.114503	 130.985162	 127.603958
H	 130.085048	 131.672547	 129.721145
H	 130.471426	 130.114766	 131.379393
