12
Randomly generated samples
C	 129.580911	 128.383485	 130.421774
C	 129.153629	 128.054509	 129.152211
C	 128.716531	 129.056974	 128.202185
C	 129.147494	 130.344341	 128.367970
C	 129.772797	 130.665176	 129.528950
C	 129.894383	 129.726724	 130.545134
H	 129.641935	 127.781594	 131.296779
H	 128.765242	 127.053052	 128.882647
H	 128.392292	 128.677219	 127.179123
H	 129.111304	 130.988185	 127.607533
H	 130.081515	 131.669102	 129.721369
H	 130.467942	 130.112668	 131.377461
