12
Randomly generated samples
C	 129.568120	 128.379842	 130.417078
C	 129.159962	 128.051945	 129.150689
C	 128.700746	 129.062311	 128.206093
C	 129.154791	 130.347886	 128.371587
C	 129.775987	 130.674874	 129.533521
C	 129.896280	 129.729234	 130.549579
H	 129.638014	 127.785812	 131.304683
H	 128.771231	 127.051725	 128.884182
H	 128.380930	 128.677500	 127.189677
H	 129.110967	 130.984590	 127.602282
H	 130.088182	 131.666557	 129.714490
H	 130.464793	 130.107990	 131.381399
