12
Randomly generated samples
C	 129.565580	 128.381152	 130.424049
C	 129.156349	 128.056849	 129.148300
C	 128.714597	 129.060014	 128.195352
C	 129.143516	 130.351335	 128.366421
C	 129.774641	 130.670212	 129.526295
C	 129.900642	 129.714012	 130.552144
H	 129.636937	 127.776597	 131.300735
H	 128.756270	 127.049729	 128.883658
H	 128.387713	 128.679920	 127.188042
H	 129.108456	 130.981472	 127.605063
H	 130.078386	 131.672844	 129.714590
H	 130.464559	 130.112322	 131.391512
