12
Randomly generated samples
C	 129.576228	 128.384634	 130.420772
C	 129.147937	 128.051984	 129.148973
C	 128.708460	 129.060133	 128.199469
C	 129.137197	 130.347752	 128.371180
C	 129.768416	 130.678680	 129.525190
C	 129.895813	 129.723270	 130.544221
H	 129.638750	 127.777951	 131.296560
H	 128.770242	 127.061475	 128.881194
H	 128.391300	 128.665910	 127.184636
H	 129.116516	 130.979174	 127.607772
H	 130.086867	 131.678505	 129.713476
H	 130.449970	 130.109316	 131.386805
