12
Randomly generated samples
C	 129.565492	 128.388201	 130.410515
C	 129.153016	 128.060356	 129.146717
C	 128.716030	 129.058209	 128.202856
C	 129.138709	 130.354269	 128.373669
C	 129.760470	 130.671791	 129.532233
C	 129.900805	 129.715525	 130.550856
H	 129.630788	 127.777337	 131.297937
H	 128.769939	 127.054011	 128.889406
H	 128.387531	 128.679157	 127.184232
H	 129.117523	 130.983587	 127.600238
H	 130.083240	 131.669347	 129.713280
H	 130.454954	 130.118895	 131.391530
