12
Randomly generated samples
C	 129.568966	 128.381964	 130.426040
C	 129.153541	 128.058123	 129.142607
C	 128.700131	 129.066893	 128.189732
C	 129.149427	 130.361262	 128.376187
C	 129.779600	 130.675265	 129.530477
C	 129.896756	 129.726530	 130.550612
H	 129.641325	 127.778828	 131.304204
H	 128.773643	 127.052747	 128.883062
H	 128.372402	 128.665124	 127.185734
H	 129.107372	 130.982107	 127.611497
H	 130.088670	 131.667529	 129.708694
H	 130.479565	 130.113149	 131.378640
