12
Randomly generated samples
C	 129.571330	 128.385440	 130.419701
C	 129.143084	 128.050311	 129.149494
C	 128.710762	 129.059311	 128.201908
C	 129.147270	 130.353283	 128.374106
C	 129.771746	 130.671167	 129.530587
C	 129.902856	 129.719415	 130.555160
H	 129.631799	 127.784934	 131.296783
H	 128.771737	 127.037789	 128.884659
H	 128.387761	 128.672065	 127.186308
H	 129.116139	 130.979172	 127.606409
H	 130.084254	 131.678565	 129.710342
H	 130.463308	 130.108939	 131.390829
