12
Randomly generated samples
C	 129.574944	 128.381295	 130.414013
C	 129.151893	 128.051731	 129.148074
C	 128.708307	 129.060977	 128.197139
C	 129.142154	 130.345645	 128.362625
C	 129.771522	 130.662525	 129.534355
C	 129.905428	 129.721104	 130.545316
H	 129.635697	 127.782712	 131.301941
H	 128.772219	 127.061735	 128.877284
H	 128.386187	 128.661793	 127.188962
H	 129.108573	 130.982278	 127.600642
H	 130.082074	 131.670537	 129.716642
H	 130.470575	 130.112860	 131.380609
