12
Randomly generated samples
C	 129.577812	 128.380600	 130.413845
C	 129.161908	 128.058257	 129.149441
C	 128.697145	 129.055616	 128.203807
C	 129.153916	 130.345952	 128.377969
C	 129.775726	 130.671361	 129.536971
C	 129.893283	 129.721138	 130.547019
H	 129.641620	 127.779102	 131.297863
H	 128.772883	 127.051253	 128.878815
H	 128.387134	 128.672821	 127.176402
H	 129.115405	 130.997120	 127.603022
H	 130.087110	 131.677386	 129.707273
H	 130.460139	 130.111861	 131.388466
