12
Randomly generated samples
C	 129.563153	 128.383335	 130.418598
C	 129.155902	 128.056277	 129.155499
C	 128.705865	 129.056925	 128.206211
C	 129.139751	 130.357364	 128.368666
C	 129.771683	 130.674086	 129.529748
C	 129.907258	 129.719523	 130.550696
H	 129.649111	 127.785536	 131.294887
H	 128.763462	 127.053687	 128.879646
H	 128.388508	 128.675259	 127.179020
H	 129.117373	 130.992052	 127.606824
H	 130.086271	 131.663912	 129.710741
H	 130.457641	 130.111733	 131.382194
