12
Randomly generated samples
C	 129.574458	 128.388965	 130.418202
C	 129.156747	 128.058328	 129.152523
C	 128.710472	 129.049975	 128.190420
C	 129.143360	 130.349385	 128.378725
C	 129.776931	 130.679876	 129.530683
C	 129.898578	 129.728784	 130.542565
H	 129.652313	 127.783849	 131.285831
H	 128.766279	 127.054119	 128.881414
H	 128.382715	 128.672631	 127.183138
H	 129.107983	 130.992170	 127.595999
H	 130.092451	 131.673629	 129.708754
H	 130.465967	 130.105886	 131.381426
