12
Randomly generated samples
C	 129.571110	 128.381816	 130.409894
C	 129.154315	 128.058827	 129.145913
C	 128.702960	 129.054934	 128.194187
C	 129.140131	 130.348241	 128.375802
C	 129.763485	 130.673587	 129.532307
C	 129.903395	 129.718243	 130.541184
H	 129.638829	 127.781971	 131.298783
H	 128.772642	 127.056403	 128.882913
H	 128.390310	 128.668224	 127.184082
H	 129.107942	 130.986420	 127.604225
H	 130.083806	 131.669348	 129.713442
H	 130.461452	 130.103853	 131.384865
