12
Randomly generated samples
C	 129.578760	 128.378948	 130.408150
C	 129.155513	 128.056261	 129.140243
C	 128.705734	 129.061849	 128.201361
C	 129.143338	 130.343634	 128.369837
C	 129.771453	 130.662876	 129.531279
C	 129.881335	 129.717720	 130.549556
H	 129.635737	 127.776554	 131.298054
H	 128.769245	 127.049602	 128.885782
H	 128.384390	 128.685964	 127.183677
H	 129.104323	 130.990741	 127.599989
H	 130.086902	 131.671315	 129.711410
H	 130.464850	 130.107803	 131.391408
