12
Randomly generated samples
C	 129.562234	 128.383126	 130.417530
C	 129.151962	 128.055631	 129.148993
C	 128.705462	 129.060103	 128.191762
C	 129.148976	 130.348835	 128.380661
C	 129.770659	 130.676068	 129.537618
C	 129.894767	 129.726673	 130.545985
H	 129.641459	 127.788212	 131.296840
H	 128.763887	 127.051273	 128.881449
H	 128.394071	 128.682904	 127.180951
H	 129.116960	 130.982251	 127.601573
H	 130.083093	 131.673511	 129.708829
H	 130.462556	 130.113071	 131.380698
