12
Randomly generated samples
C	 129.569891	 128.381452	 130.416001
C	 129.161760	 128.053691	 129.150822
C	 128.709250	 129.057076	 128.198039
C	 129.150055	 130.345290	 128.368963
C	 129.763673	 130.677425	 129.536965
C	 129.895705	 129.724760	 130.543228
H	 129.640443	 127.784063	 131.297563
H	 128.767698	 127.056759	 128.875736
H	 128.385619	 128.678917	 127.181760
H	 129.114606	 130.984023	 127.591330
H	 130.099036	 131.667832	 129.708724
H	 130.465810	 130.111449	 131.384073
