12
Randomly generated samples
C	 129.575029	 128.376212	 130.416591
C	 129.148104	 128.056000	 129.149754
C	 128.705488	 129.063066	 128.202840
C	 129.144655	 130.346059	 128.379073
C	 129.766978	 130.676134	 129.539299
C	 129.891132	 129.718504	 130.551279
H	 129.643400	 127.778721	 131.294660
H	 128.770583	 127.056124	 128.888184
H	 128.384009	 128.670333	 127.182936
H	 129.109684	 130.989550	 127.605802
H	 130.083858	 131.664337	 129.712895
H	 130.463458	 130.105145	 131.388090
