12
Randomly generated samples
C	 129.579031	 128.376659	 130.423773
C	 129.141456	 128.056417	 129.141404
C	 128.698542	 129.063201	 128.202090
C	 129.149955	 130.348940	 128.380274
C	 129.770110	 130.675407	 129.526847
C	 129.899084	 129.712338	 130.542304
H	 129.638468	 127.775550	 131.301058
H	 128.768661	 127.052856	 128.881910
H	 128.388829	 128.675620	 127.182067
H	 129.114280	 130.987276	 127.594437
H	 130.087777	 131.663318	 129.708264
H	 130.456558	 130.104457	 131.382164
