12
Randomly generated samples
C	 129.574095	 128.383045	 130.413157
C	 129.145506	 128.062327	 129.153432
C	 128.702866	 129.058866	 128.195954
C	 129.146106	 130.349825	 128.370178
C	 129.770701	 130.672407	 129.528242
C	 129.895847	 129.720861	 130.554206
H	 129.643575	 127.780255	 131.304633
H	 128.765545	 127.041927	 128.878261
H	 128.387666	 128.677284	 127.183492
H	 129.113996	 130.982541	 127.604678
H	 130.079477	 131.668951	 129.716086
H	 130.465505	 130.110725	 131.382716
