12
Randomly generated samples
C	 129.570594	 128.389608	 130.419068
C	 129.147464	 128.062764	 129.139645
C	 128.704100	 129.061022	 128.207501
C	 129.142291	 130.351368	 128.383954
C	 129.770996	 130.675243	 129.525151
C	 129.903925	 129.715324	 130.559152
H	 129.630880	 127.778539	 131.293151
H	 128.767929	 127.044736	 128.888253
H	 128.376159	 128.680196	 127.176774
H	 129.113537	 130.980017	 127.616647
H	 130.077020	 131.667175	 129.712891
H	 130.459737	 130.110152	 131.378134
