12
Randomly generated samples
C	 129.569885	 128.382071	 130.412739
C	 129.153401	 128.061444	 129.149351
C	 128.699798	 129.054614	 128.203155
C	 129.136553	 130.352916	 128.375941
C	 129.772194	 130.671571	 129.526813
C	 129.900163	 129.714912	 130.544767
H	 129.639446	 127.783562	 131.305497
H	 128.773133	 127.055119	 128.878292
H	 128.395550	 128.676162	 127.185362
H	 129.121569	 130.982051	 127.601566
H	 130.087967	 131.669918	 129.719450
H	 130.462078	 130.114794	 131.381206
