12
Randomly generated samples
C	 129.578158	 128.375485	 130.416447
C	 129.147475	 128.055065	 129.149747
C	 128.705087	 129.055224	 128.210582
C	 129.144117	 130.351683	 128.369758
C	 129.771256	 130.673016	 129.523760
C	 129.896593	 129.708070	 130.551551
H	 129.644663	 127.777637	 131.296412
H	 128.765152	 127.058564	 128.882400
H	 128.384879	 128.667819	 127.184582
H	 129.115515	 130.987509	 127.605097
H	 130.088211	 131.665890	 129.730296
H	 130.456260	 130.111282	 131.382681
