12
Randomly generated samples
C	 129.571653	 128.374835	 130.424201
C	 129.154694	 128.050752	 129.147984
C	 128.711474	 129.056213	 128.195585
C	 129.137323	 130.355732	 128.378485
C	 129.775810	 130.675796	 129.531603
C	 129.900137	 129.710119	 130.553609
H	 129.642347	 127.783086	 131.297424
H	 128.764497	 127.059540	 128.887935
H	 128.372421	 128.684236	 127.173590
H	 129.111319	 130.990813	 127.598898
H	 130.079265	 131.661779	 129.719290
H	 130.460487	 130.104464	 131.381217
