12
Randomly generated samples
C	 129.574035	 128.384264	 130.415384
C	 129.160497	 128.059568	 129.152443
C	 128.701914	 129.059534	 128.205872
C	 129.138689	 130.354635	 128.376017
C	 129.770500	 130.669561	 129.533792
C	 129.894659	 129.723861	 130.560661
H	 129.641221	 127.782483	 131.302231
H	 128.762891	 127.055303	 128.881725
H	 128.378582	 128.675844	 127.190884
H	 129.114248	 130.987175	 127.596245
H	 130.092974	 131.667955	 129.711294
H	 130.457900	 130.111617	 131.386334
