12
Randomly generated samples
C	 129.570736	 128.380652	 130.419239
C	 129.159885	 128.054871	 129.149986
C	 128.700949	 129.057051	 128.193676
C	 129.142461	 130.343579	 128.378784
C	 129.768306	 130.674459	 129.540991
C	 129.898352	 129.726149	 130.545613
H	 129.639817	 127.791255	 131.300629
H	 128.761299	 127.055791	 128.888904
H	 128.381380	 128.673727	 127.178375
H	 129.112390	 130.977129	 127.606329
H	 130.087485	 131.675068	 129.713548
H	 130.466891	 130.113798	 131.384362
