12
Randomly generated samples
C	 129.567463	 128.378382	 130.416516
C	 129.153314	 128.052171	 129.144818
C	 128.707629	 129.060312	 128.200697
C	 129.146814	 130.357693	 128.377857
C	 129.772828	 130.682492	 129.531096
C	 129.899496	 129.719062	 130.543277
H	 129.640566	 127.784615	 131.294904
H	 128.771392	 127.050333	 128.887609
H	 128.394879	 128.675785	 127.179931
H	 129.111939	 130.978897	 127.608466
H	 130.082593	 131.676904	 129.709744
H	 130.459257	 130.114486	 131.382333
