12
Randomly generated samples
C	 129.568280	 128.378526	 130.406871
C	 129.153284	 128.058016	 129.139676
C	 128.697055	 129.063990	 128.204722
C	 129.150233	 130.349636	 128.371969
C	 129.763591	 130.675776	 129.528749
C	 129.893868	 129.715308	 130.547801
H	 129.645164	 127.782446	 131.296894
H	 128.770387	 127.047195	 128.884700
H	 128.379549	 128.675148	 127.186104
H	 129.105576	 130.993670	 127.600384
H	 130.084477	 131.675622	 129.712928
H	 130.461642	 130.106114	 131.383867
