12
Randomly generated samples
C	 129.568775	 128.378270	 130.417774
C	 129.153987	 128.050390	 129.150996
C	 128.699268	 129.059423	 128.201192
C	 129.143023	 130.353256	 128.372545
C	 129.774480	 130.671182	 129.530339
C	 129.899917	 129.722826	 130.553571
H	 129.640393	 127.778628	 131.287048
H	 128.776216	 127.054147	 128.876657
H	 128.376013	 128.676628	 127.182361
H	 129.118893	 130.992358	 127.606821
H	 130.084579	 131.670673	 129.714672
H	 130.463202	 130.111944	 131.382192
