12
Randomly generated samples
C	 129.573963	 128.382969	 130.418017
C	 129.148189	 128.054597	 129.151951
C	 128.702583	 129.063422	 128.190315
C	 129.142912	 130.350622	 128.382809
C	 129.782663	 130.679788	 129.532595
C	 129.901187	 129.728633	 130.555040
H	 129.629477	 127.780962	 131.294476
H	 128.774840	 127.057746	 128.877163
H	 128.387164	 128.676165	 127.169837
H	 129.119940	 130.979105	 127.604914
H	 130.088988	 131.668538	 129.706440
H	 130.462099	 130.117846	 131.382480
