12
Randomly generated samples
C	 129.580760	 128.381956	 130.419854
C	 129.152400	 128.048285	 129.145667
C	 128.705205	 129.063629	 128.201161
C	 129.143512	 130.360272	 128.377607
C	 129.773044	 130.677472	 129.532162
C	 129.899676	 129.720464	 130.554210
H	 129.637347	 127.776319	 131.296242
H	 128.761103	 127.054969	 128.891758
H	 128.380987	 128.677930	 127.181246
H	 129.127248	 130.982270	 127.598146
H	 130.092285	 131.667671	 129.713313
H	 130.460100	 130.113774	 131.390631
