12
Randomly generated samples
C	 129.573968	 128.388563	 130.415534
C	 129.151079	 128.059976	 129.146335
C	 128.706444	 129.059899	 128.196852
C	 129.137925	 130.341265	 128.372171
C	 129.773938	 130.666718	 129.533319
C	 129.901083	 129.725560	 130.547719
H	 129.638813	 127.781963	 131.296327
H	 128.766812	 127.050583	 128.880751
H	 128.381101	 128.679235	 127.176275
H	 129.112044	 130.987829	 127.601239
H	 130.091473	 131.672146	 129.708343
H	 130.460250	 130.115714	 131.389205
