12
Randomly generated samples
C	 129.574607	 128.376074	 130.408694
C	 129.148653	 128.059302	 129.151431
C	 128.696159	 129.062523	 128.197229
C	 129.133762	 130.353013	 128.378021
C	 129.786707	 130.670558	 129.534126
C	 129.895539	 129.722710	 130.553515
H	 129.639058	 127.777846	 131.303070
H	 128.764623	 127.047371	 128.884833
H	 128.386191	 128.681585	 127.178750
H	 129.117833	 130.984956	 127.603954
H	 130.080501	 131.667043	 129.717956
H	 130.469528	 130.107073	 131.377411
